/*--------------------------------*- C++ -*----------------------------------*\
  =========                 |
  \\      /  F ield         | OpenFOAM: The Open Source CFD Toolbox
   \\    /   O peration     | Website:  https://openfoam.org
    \\  /    A nd           | Version:  6
     \\/     M anipulation  |
\*---------------------------------------------------------------------------*/
FoamFile
{
    version     2.0;
    format      ascii;
    class       volScalarField;
    object      X2;
}
// * Protein Degraders * * * * * * * * * * * * * * * * * * * * * * * * * * * * * * * * * * * * //

dimensions      [0 0 0 1 0 0 0];

internalField   uniform 0.0001; //from " David Gaden"

boundaryField
{
    inlet
    {
	type	groovyBC;
	valueExpression "X2Outlet";
	variables "X2Outlet{outlet}=average(X2);";
	value uniform 0.0001;
    }

    outlet
    {
        type            zeroGradient;
    }

    fixedWalls
    {
        type            zeroGradient;

    }


    frontAndBack
    {
        type            empty;
    }
}

// ************************************************************************* //
