/*--------------------------------*- C++ -*----------------------------------*\
  =========                 |
  \\      /  F ield         | OpenFOAM: The Open Source CFD Toolbox
   \\    /   O peration     | Website:  https://openfoam.org
    \\  /    A nd           | Version:  6
     \\/     M anipulation  |
\*---------------------------------------------------------------------------*/
FoamFile
{
    version     2.0;
    format      ascii;
    class       volScalarField;
    object      X7;
}
// * VFA - volerate Degraders * * * * * * * * * * * * * * * * * * * * * * * * * * * * * * * * * * * * //

dimensions      [0 0 0 1 0 0 0];

internalField   uniform 0.0025; //kg/m3

boundaryField
{
    inlet
    {
	type	groovyBC;
	valueExpression "X7Outlet";
	variables "X7Outlet{outlet}=average(X7);";
	value uniform 0.0025;
    }

    outlet
    {
        type            zeroGradient;
    }

    fixedWalls
    {
        type            zeroGradient;
    }



    frontAndBack
    {
        type            empty;
    }
}

// ************************************************************************* //
