/*--------------------------------*- C++ -*----------------------------------*\
  =========                 |
  \\      /  F ield         | OpenFOAM: The Open Source CFD Toolbox
   \\    /   O peration     | Website:  https://openfoam.org
    \\  /    A nd           | Version:  6
     \\/     M anipulation  |
\*---------------------------------------------------------------------------*/
FoamFile
{
    version     2.0;
    format      ascii;
    class       volScalarField;
    object      psi5;
}
// * Amino Acids * * * * * * * * * * * * * * * * * * * * * * * * * * * * * * * * * * * * //

dimensions      [0 0 0 1 0 0 0];

internalField   uniform 0.0108; //kg/m3

boundaryField
{
    inlet
    {
	type	groovyBC;
	valueExpression "psi5Outlet";
	variables "psi5Outlet{outlet}=average(psi5);";
	value uniform 0.0108;

    }

    outlet
    {
        type            fixedValue;
        value           uniform 0.0108;
    }

    wall
    {
        type            zeroGradient;
    }

    wall-tank
    {
        type            zeroGradient;
    }

    bot
    {
        type            zeroGradient;
    }


    frontAndBackPlanes
    {
        type            empty;
    }
}

// ************************************************************************* //
