/*--------------------------------*- C++ -*----------------------------------*\
  =========                 |
  \\      /  F ield         | OpenFOAM: The Open Source CFD Toolbox
   \\    /   O peration     | Website:  https://openfoam.org
    \\  /    A nd           | Version:  6
     \\/     M anipulation  |
\*---------------------------------------------------------------------------*/
FoamFile
{
    version     2.0;
    format      ascii;
    class       volScalarField;
    object      X1;
}
// * Carb Degraders * * * * * * * * * * * * * * * * * * * * * * * * * * * * * * * * * * * * //

dimensions      [0 0 0 1 0 0 0];

internalField   uniform 0.074679; //from " David Gaden"

boundaryField
{
    inlet
    {
	type	groovyBC;
	valueExpression "X1Outlet";
	variables "X1Outlet{outlet}=average(X1);";
	value uniform 0.074679;
    }

    outlet
    {
        type            fixedValue;
        value           uniform 0.074679;
    }

    wall
    {
        type            zeroGradient;
    }

    wall-tank
    {
        type            zeroGradient;
    }

    bot
    {
        type            zeroGradient;
    }


    frontAndBackPlanes
    {
        type            empty;
    }
}

// ************************************************************************* //
